                                   MODFLOW 6
                U.S. GEOLOGICAL SURVEY MODULAR HYDROLOGIC MODEL
                            VERSION 6.2.0 10/22/2020

   MODFLOW 6 compiled Oct 22 2020 09:26:42 with IFORT compiler (ver. 19.10.2)

This software has been approved for release by the U.S. Geological 
Survey (USGS). Although the software has been subjected to rigorous 
review, the USGS reserves the right to update the software as needed 
pursuant to further analysis and review. No warranty, expressed or 
implied, is made by the USGS or the U.S. Government as to the 
functionality of the software and related material nor shall the 
fact of release constitute any such warranty. Furthermore, the 
software is released on condition that neither the USGS nor the U.S. 
Government shall be held liable for any damages resulting from its 
authorized or unauthorized use. Also refer to the USGS Water 
Resources Software User Rights Notice for complete use, copyright, 
and distribution information.


System command used to initiate simulation:
C:/Users/Administrador/mf6.2.0/bin/mf6.exe

MODFLOW was compiled using uniform precision.

Real Variables
  KIND: 8
  TINY (smallest non-zero value):    2.225074-308
  HUGE (largest value):    1.797693+308
  PRECISION: 15
  BIT SIZE: 64

Integer Variables
  KIND: 4
  HUGE (largest value): 2147483647
  BIT SIZE: 32

Long Integer Variables
  KIND: 8
  HUGE (largest value): 9223372036854775807
  BIT SIZE: 64

Logical Variables
  KIND: 4
  BIT SIZE: 32
 

 OPENED mfsim.nam
 FILE TYPE:NAM   UNIT 1001   STATUS:OLD                 
 FORMAT:FORMATTED              ACCESS:SEQUENTIAL          
 ACTION:READ                

 # File generated by Flopy version 3.3.2 on 12/27/2020 at 17:59:28.

 READING SIMULATION OPTIONS
 END OF SIMULATION OPTIONS

 READING SIMULATION TIMING

 OPENED mf6model.tdis
 FILE TYPE:TDIS   UNIT 1002   STATUS:OLD                 
 FORMAT:FORMATTED              ACCESS:SEQUENTIAL          
 ACTION:READ                


 TDIS -- TEMPORAL DISCRETIZATION PACKAGE,
 VERSION 1 : 11/13/2014 - INPUT READ FROM UNIT 1002
 # File generated by Flopy version 3.3.2 on 12/27/2020 at 17:59:28.
 PROCESSING TDIS OPTIONS
    SIMULATION TIME UNIT IS SECONDS
 END OF TDIS OPTIONS
 PROCESSING TDIS DIMENSIONS
    1 STRESS PERIOD(S) IN SIMULATION
 END OF TDIS DIMENSIONS
 PROCESSING TDIS PERIODDATA


 STRESS PERIOD     LENGTH       TIME STEPS     MULTIPLIER FOR DELT
 ----------------------------------------------------------------------------
        1         1.000000          1                    1.000
 END OF TDIS PERIODDATA
 END OF SIMULATION TIMING

 READING SIMULATION MODELS
    GWF6 model MF6MODEL will be created as model 1
 END OF SIMULATION MODELS

 READING SIMULATION EXCHANGES
 END OF SIMULATION EXCHANGES

 READING SOLUTIONGROUP

 Creating solution: SLN_1           

 OPENED mf6model.ims
 FILE TYPE:IMS   UNIT 1012   STATUS:OLD                 
 FORMAT:FORMATTED              ACCESS:SEQUENTIAL          
 ACTION:READ                

 END OF SIMULATION SOLUTIONGROUP

 IMS -- ITERATIVE MODEL SOLUTION PACKAGE, VERSION 6, 4/28/2017
         INPUT READ FROM UNIT 1012
 # File generated by Flopy version 3.3.2 on 12/27/2020 at 17:59:28.

 PROCESSING IMS OPTIONS
 MODERATE OPTION:
 DEFAULT SOLVER INPUT VALUES REFLECT MODERETELY NONLINEAR MODEL
 END OF IMS OPTIONS

 PROCESSING IMS NONLINEAR
 END OF IMS NONLINEAR DATA
 **UNDER-RELAXATION WILL BE USED***
 
 ***IMS LINEAR SOLVER WILL BE USED***

 IMSLINEAR -- UNSTRUCTURED LINEAR SOLUTION PACKAGE, VERSION 8, 04/28/2017

 PROCESSING LINEAR DATA
 END OF LINEAR DATA
 
 OUTER ITERATION CONVERGENCE CRITERION    (DVCLOSE) =    0.100000E-01
 MAXIMUM NUMBER OF OUTER ITERATIONS        (MXITER) = 50
 SOLVER PRINTOUT INDEX                     (IPRIMS) = 2
 NONLINEAR ITERATION METHOD            (NONLINMETH) = 3
 LINEAR SOLUTION METHOD                   (LINMETH) = 1
 UNDER-RELAXATION WEIGHT REDUCTION FACTOR   (THETA) =    0.900000E+00
 UNDER-RELAXATION WEIGHT INCREASE INCREMENT (KAPPA) =    0.100000E-03
 UNDER-RELAXATION PREVIOUS HISTORY FACTOR   (GAMMA) =    0.000000E+00
 UNDER-RELAXATION MOMENTUM TERM         (AMOMENTUM) =    0.000000E+00

       SOLUTION BY THE BICONJUGATE-GRADIENT STABILIZED METHOD
 ------------------------------------------------------------------
 MAXIMUM OF 50 CALLS OF SOLUTION ROUTINE
 MAXIMUM OF 100 INTERNAL ITERATIONS PER CALL TO SOLUTION ROUTINE
 LINEAR ACCELERATION METHOD            = BCGS      
 MATRIX PRECONDITIONING TYPE           = MOD. INCOMPLETE LU  
 MATRIX SCALING APPROACH               = NO SCALING          
 MATRIX REORDERING APPROACH            = ORIGINAL ORDERING        
 NUMBER OF ORTHOGONALIZATIONS          = 0
 HEAD CHANGE CRITERION FOR CLOSURE     =    0.10000E-01
 RESIDUAL CHANGE CRITERION FOR CLOSURE =    0.10000E+00
 RESIDUAL CONVERGENCE OPTION           = 0
 RESIDUAL CONVERGENCE NORM             = INFINITY NORM   
 RELAXATION FACTOR                     =    0.97000E+00



1
                            STRESS PERIOD NO.    1, LENGTH =   1.000000    
                            -----------------------------------------------

                              NUMBER OF TIME STEPS =     1

                               MULTIPLIER FOR DELT =     1.000

                            INITIAL TIME STEP SIZE =   1.000000    



 PSEUDO-TRANSIENT CONTINUATION WILL BE APPLIED TO MODEL 1 ("MF6MODEL") DURING THIS TIME STEP

 OUTER ITERATION SUMMARY
 ----------------------------------------------------------------------------------------------------------
                                OUTER      INNER                    STEP   MAXIMUM CHANGE MODEL-(CELLID) OR
 OUTER ITERATION STEP       ITERATION  ITERATION  MAXIMUM CHANGE SUCCESS             MODEL-PACKAGE-(NUMBER)
 ----------------------------------------------------------------------------------------------------------
 Model                              1         12      -98.316535                          1_GWF-(4,130,193)
 Model                              2         54      -161.08955                           1_GWF-(1,280,26)
 Model                              3         20      -22.498737                           1_GWF-(1,258,17)
 Model                              4         38      -43.132938                          1_GWF-(1,111,112)
 Model                              5         28      -17.672234                            1_GWF-(4,211,9)
 Model                              6         48      -29.370125                            1_GWF-(4,199,8)
 Model                              7         41      -18.546321                            1_GWF-(4,199,8)
 Model                              8         48      -26.068598                            1_GWF-(4,199,8)
 Model                              9         47      -19.463668                           1_GWF-(4,189,10)
 Model                             10         52      -23.027664                           1_GWF-(4,189,10)
 Model                             11         42      -18.408683                           1_GWF-(4,189,10)
 Model                             12         49      -20.406039                            1_GWF-(4,74,46)
 Model                             13         46      -18.598940                            1_GWF-(4,74,46)
 Model                             14         47      -19.118164                            1_GWF-(4,74,46)
 Model                             15         41      -17.039780                            1_GWF-(4,74,46)
 Model                             16         48      -16.208928                          1_GWF-(4,271,216)
 Model                             17         43      -17.059689                          1_GWF-(1,265,238)
 Model                             18         49      -18.388473                          1_GWF-(1,265,238)
 Model                             19         62      -18.923382                          1_GWF-(1,265,238)
 Model                             20         45      -19.662836                          1_GWF-(1,265,238)
 Model                             21         66      -17.728993                          1_GWF-(1,265,238)
 Model                             22         65      -15.804745                          1_GWF-(4,248,235)
 Model                             23         46      -13.866568                          1_GWF-(4,248,236)
 Model                             24         46      -11.473212                          1_GWF-(4,248,236)
 Model                             25         48      -8.1211505                          1_GWF-(4,248,236)
 Model                             26         35      -4.9461920                          1_GWF-(4,248,236)
 Model                             27         15      -1.2917382                          1_GWF-(1,239,207)
 Model                             28         32      -3.0327569                          1_GWF-(4,248,235)
 Model                             29         11     -0.52222947                          1_GWF-(1,239,207)
 Model                             30          9     -0.18816097                          1_GWF-(4,239,207)
 Model                             31          4 -6.85320972E-02                          1_GWF-(1,239,207)
 Model                             32          4 -2.73556309E-02                          1_GWF-(4,239,207)
 Model                             33          4 -1.34712783E-02                          1_GWF-(4,239,207)
 Model                             34          1 -6.95149603E-03       *                  1_GWF-(4,239,207)
 ----------------------------------------------------------------------------------------------------------


 34 CALLS TO NUMERICAL SOLUTION IN TIME STEP 1 STRESS PERIOD 1
 1246 TOTAL ITERATIONS

 INNER ITERATION SUMMARY
 --------------------------------------------------------------------------------------------------------------------------------------
      TOTAL      OUTER      INNER                                                            MAXIMUM                                   
  ITERATION  ITERATION  ITERATION  MAXIMUM CHANGE      MAXIMUM CHANGE MODEL-(CELLID)        RESIDUAL    MAXIMUM RESIDUAL MODEL-(CELLID)
 --------------------------------------------------------------------------------------------------------------------------------------
          1          1          1      -90.775292                  1_GWF-(4,130,192)      0.33721213                  1_GWF-(4,130,193)
          2          1          2      -23.274796                   1_GWF-(4,260,15)      0.12591815                   1_GWF-(4,259,18)
          3          1          3      -13.324977                   1_GWF-(4,259,19)  1.95916608E-02                   1_GWF-(4,259,18)
          4          1          4      -2.1969824                   1_GWF-(4,258,20)  2.41341200E-02                   1_GWF-(4,259,18)
          5          1          5      -2.1515146                   1_GWF-(4,74,153)  1.40582132E-02                   1_GWF-(4,259,18)
          6          1          6      -1.1547376                   1_GWF-(4,77,153)  4.57648242E-03                   1_GWF-(4,259,18)
          7          1          7     -0.56627399                   1_GWF-(4,79,152)  1.75186770E-03                   1_GWF-(4,259,18)
          8          1          8     -0.33310009                   1_GWF-(4,81,151)  5.97227407E-04                   1_GWF-(4,259,18)
          9          1          9     -0.17854162                   1_GWF-(4,83,150) -1.59540269E-04                   1_GWF-(4,260,17)
         10          1         10 -5.98795324E-02                   1_GWF-(4,88,147) -3.39172041E-05                   1_GWF-(4,260,17)
         11          1         11 -2.12396652E-02                   1_GWF-(4,93,145) -7.70902568E-06                   1_GWF-(4,260,17)
         12          1         12 -9.03096744E-03                   1_GWF-(4,98,142) -1.94428559E-06                  1_GWF-(1,166,201)
         13          2          1      -112.25075                   1_GWF-(4,151,25)     -0.11113883                   1_GWF-(4,259,18)
         14          2          2      -93.066174                   1_GWF-(4,143,29)  3.09970280E-02                   1_GWF-(4,149,28)
         15          2          3      -19.853681                   1_GWF-(4,149,28)  2.64671100E-02                   1_GWF-(4,149,28)
         16          2          4      -41.076258                   1_GWF-(4,149,28) -1.63877476E-02                    1_GWF-(4,53,74)
         17          2          5      -31.354088                   1_GWF-(4,149,28) -1.29965869E-02                    1_GWF-(4,53,74)
         18          2          6      -17.608313                    1_GWF-(4,53,74) -1.81192612E-02                    1_GWF-(1,53,74)
         19          2          7      -9.8886958                    1_GWF-(1,221,8) -1.50591161E-02                    1_GWF-(1,53,74)
         20          2          8      -17.038365                    1_GWF-(4,53,74) -2.04890009E-02                    1_GWF-(1,53,74)
         21          2          9       23.162820                    1_GWF-(4,53,74) -1.19904821E-02                    1_GWF-(1,53,74)
         22          2         10       18.174662                  1_GWF-(4,204,219) -1.34600028E-02                    1_GWF-(1,53,74)
         23          2         11       33.660467                    1_GWF-(4,53,74)  4.14956469E-03                   1_GWF-(4,21,147)
         24          2         12       12.130084                  1_GWF-(4,204,219)  7.27878773E-03                  1_GWF-(1,204,219)
         25          2         13      -13.085189                  1_GWF-(4,204,219)  3.95000754E-03                  1_GWF-(4,173,221)
         26          2         14       16.451426                  1_GWF-(4,204,219)  7.79688836E-03                  1_GWF-(1,204,219)
         27          2         15      -12.020458                  1_GWF-(4,204,219)  3.43815339E-03                  1_GWF-(1,204,219)
         28          2         16       11.349533                  1_GWF-(4,204,219)  6.94267672E-03                  1_GWF-(1,204,219)
         29          2         17      -12.976990                  1_GWF-(4,204,219)  2.36007025E-03                  1_GWF-(1,204,219)
         30          2         18      -3.0347490                  1_GWF-(4,117,134)  2.76467484E-03                  1_GWF-(1,204,219)
         31          2         19      -6.8286381                  1_GWF-(4,204,219) -8.23389422E-04                   1_GWF-(4,21,147)
         32          2         20      -19.871484                  1_GWF-(4,204,219) -6.16944369E-03                  1_GWF-(1,204,219)
         33          2         21       18.730516                  1_GWF-(4,204,219)  3.35408230E-04                   1_GWF-(4,43,108)
         34          2         22       9.4692247                  1_GWF-(4,204,219)  3.32688767E-03                  1_GWF-(1,204,219)
         35          2         23      -8.5412883                  1_GWF-(4,204,219)  4.50463698E-04                  1_GWF-(4,204,219)
         36          2         24      -1.7895346                   1_GWF-(4,34,109) -2.67492682E-04                  1_GWF-(4,229,213)
         37          2         25     -0.89568778                   1_GWF-(4,233,69)  1.89435057E-04                  1_GWF-(4,279,110)
         38          2         26      0.72419115                    1_GWF-(4,75,45)  3.01860579E-04                    1_GWF-(4,75,45)
         39          2         27     -0.66839007                   1_GWF-(4,35,108)  5.11256545E-04                    1_GWF-(4,75,45)
         40          2         28     -0.96572989                    1_GWF-(4,75,45)  6.82634144E-05                    1_GWF-(4,75,45)
         41          2         29     -0.36398195                  1_GWF-(4,229,213) -1.70610617E-04                  1_GWF-(4,229,213)
         42          2         30      0.26930345                  1_GWF-(4,229,213) -8.55480803E-05                  1_GWF-(4,229,213)
         43          2         31     -0.22391204                  1_GWF-(4,229,213) -1.55848040E-04                  1_GWF-(4,229,213)
         44          2         32      0.38276414                  1_GWF-(4,229,213)  4.94062002E-05                   1_GWF-(4,277,80)
         45          2         33     -0.21172832                   1_GWF-(4,279,83) -9.61610838E-05                  1_GWF-(4,229,213)
         46          2         34      0.21141357                  1_GWF-(4,229,213)  4.11306963E-05                   1_GWF-(4,278,85)
         47          2         35     -0.16885401                   1_GWF-(4,279,87) -7.63837836E-05                  1_GWF-(4,229,213)
         48          2         36     -0.11880299                   1_GWF-(4,279,88) -6.00266516E-05                  1_GWF-(4,229,213)
         49          2         37      -1.1318788                  1_GWF-(4,229,213) -4.16527799E-04                  1_GWF-(4,229,213)
         50          2         38       1.3232533                  1_GWF-(4,229,213)  2.18578120E-05                   1_GWF-(4,277,80)
         51          2         39     -0.65758541                  1_GWF-(4,229,213) -2.06095951E-04                  1_GWF-(4,229,213)
         52          2         40      0.37836699                  1_GWF-(4,229,213) -8.71381620E-05                  1_GWF-(4,229,213)
         53          2         41      0.17891842                  1_GWF-(4,229,213) -3.08137230E-05                  1_GWF-(4,229,213)
         54          2         42 -7.14664580E-02                  1_GWF-(4,229,213) -5.32914605E-05                  1_GWF-(4,229,213)
         55          2         43      0.12517567                  1_GWF-(4,229,213) -1.90803200E-05                  1_GWF-(4,225,195)
         56          2         44 -6.16795582E-02                   1_GWF-(4,279,76)  7.03385223E-06                   1_GWF-(4,271,27)
         57          2         45 -9.12451692E-02                  1_GWF-(4,229,213) -2.59678494E-05                  1_GWF-(4,229,213)
         58          2         46 -5.50633501E-02                  1_GWF-(4,225,195)  1.22038819E-05                    1_GWF-(4,75,45)
         59          2         47  4.95401970E-02                  1_GWF-(4,229,213)  3.94770757E-06                   1_GWF-(4,273,26)
         60          2         48 -5.30690441E-02                  1_GWF-(4,229,213) -1.32871805E-05                  1_GWF-(4,229,213)
         61          2         49 -5.45871755E-02                   1_GWF-(4,279,79)  2.73772442E-06                   1_GWF-(4,273,26)
         62          2         50 -9.37657056E-02                  1_GWF-(4,229,213) -2.83405909E-05                  1_GWF-(4,229,213)
         63          2         51  9.69467469E-02                  1_GWF-(4,229,213)  2.19107267E-06                  1_GWF-(4,229,213)
         64          2         52 -1.57029959E-02                  1_GWF-(4,229,213) -2.75763954E-06                  1_GWF-(4,229,213)
         65          2         53 -1.32261688E-02                   1_GWF-(4,279,75)  9.95616676E-07                   1_GWF-(4,271,27)
         66          2         54 -6.94063831E-03                   1_GWF-(4,276,26) -1.27165420E-06                  1_GWF-(4,229,213)
         67          3          1      -41.405073                   1_GWF-(4,103,33)     -0.14409987                   1_GWF-(4,259,18)
         68          3          2       80.231263                   1_GWF-(4,103,33)  2.37970077E-02                   1_GWF-(4,103,33)
         69          3          3      -65.536609                   1_GWF-(4,103,33) -1.56391364E-02                   1_GWF-(4,259,18)
         70          3          4       27.559273                   1_GWF-(4,103,33) -1.63048499E-02                   1_GWF-(4,259,18)
         71          3          5       2.3710401                   1_GWF-(4,103,33)  3.87443673E-03                   1_GWF-(4,103,33)
         72          3          6      0.76481237                   1_GWF-(4,103,33)  4.30150674E-03                   1_GWF-(4,103,33)
         73          3          7      -1.8521476                   1_GWF-(4,145,29)  4.73952860E-03                   1_GWF-(4,103,33)
         74          3          8      -14.883476                   1_GWF-(4,103,33) -3.05406412E-03                   1_GWF-(4,103,33)
         75          3          9       4.2914820                   1_GWF-(4,103,33) -8.18127152E-04                   1_GWF-(4,103,33)
         76          3         10      -4.8314864                  1_GWF-(4,116,114) -5.49079020E-04                   1_GWF-(4,259,18)
         77          3         11       2.6529694                  1_GWF-(4,116,113)  6.50754775E-05                    1_GWF-(1,53,74)
         78          3         12      0.16677192                    1_GWF-(4,53,74)  1.34937645E-04                    1_GWF-(1,53,74)
         79          3         13     -0.23159637                    1_GWF-(4,53,74) -3.77144480E-05                    1_GWF-(4,81,70)
         80          3         14 -3.99110234E-02                    1_GWF-(4,81,70) -5.81625927E-05                    1_GWF-(4,81,70)
         81          3         15     -0.38619513                    1_GWF-(4,53,74)  1.33884146E-04                    1_GWF-(4,81,70)
         82          3         16     -0.26875756                    1_GWF-(4,81,70)  2.76642397E-05                   1_GWF-(4,259,18)
         83          3         17  4.19335545E-02                  1_GWF-(4,104,141)  3.50936234E-05                   1_GWF-(4,259,18)
         84          3         18     -0.45659508                  1_GWF-(4,104,141) -1.30433219E-04                   1_GWF-(4,259,18)
         85          3         19      0.29652637                  1_GWF-(4,104,141)  1.76739412E-06                   1_GWF-(4,260,17)
         86          3         20 -5.15582196E-03                    1_GWF-(4,81,70) -6.12458223E-06                   1_GWF-(4,259,18)
         87          4          1      -68.313813                   1_GWF-(4,103,33) -4.65673930E-02                   1_GWF-(4,259,18)
         88          4          2      -70.706413                   1_GWF-(4,141,31) -1.64432497E-02                   1_GWF-(4,141,31)
         89          4          3       38.923865                   1_GWF-(4,141,31) -4.46828389E-03                   1_GWF-(4,103,33)
         90          4          4      -7.3730973                   1_GWF-(4,141,31) -1.82699095E-03                   1_GWF-(4,103,33)
         91          4          5      -6.6345600                    1_GWF-(4,53,74) -3.33238142E-03                    1_GWF-(1,53,74)
         92          4          6       7.3751723                    1_GWF-(4,53,74)  8.06370778E-04                   1_GWF-(4,273,26)
         93          4          7      -11.934706                    1_GWF-(4,53,74) -4.32249787E-03                    1_GWF-(1,53,74)
         94          4          8       9.8834261                    1_GWF-(4,53,74)  6.77795296E-04                  1_GWF-(4,116,115)
         95          4          9      -10.890255                    1_GWF-(4,53,74) -3.79742596E-03                    1_GWF-(1,53,74)
         96          4         10       6.7081528                    1_GWF-(4,53,74) -8.54335070E-04                    1_GWF-(1,53,74)
         97          4         11      -5.3485902                    1_GWF-(4,230,9) -2.15090644E-03                    1_GWF-(1,53,74)
         98          4         12      -4.2278953                   1_GWF-(4,231,11) -8.78909969E-04                    1_GWF-(1,53,74)
         99          4         13      -3.2507818                    1_GWF-(4,53,74) -2.14615911E-03                    1_GWF-(1,53,74)
        100          4         14       4.3488860                    1_GWF-(4,53,74) -6.52274342E-04                    1_GWF-(1,53,74)
        101          4         15      -1.8490423                    1_GWF-(4,53,74) -1.49570565E-03                    1_GWF-(1,53,74)
        102          4         16       2.5964275                    1_GWF-(4,53,74) -6.66071723E-04                    1_GWF-(1,53,74)
        103          4         17       2.5426715                    1_GWF-(4,53,74)  2.66003552E-04                  1_GWF-(1,204,219)
        104          4         18       1.2569504                   1_GWF-(1,190,10) -1.40529758E-04                   1_GWF-(4,229,10)
        105          4         19      -2.4353052                    1_GWF-(4,53,74) -8.51154843E-04                    1_GWF-(1,53,74)
        106          4         20       2.0851850                    1_GWF-(4,53,74) -1.81889201E-04                    1_GWF-(1,53,74)
        107          4         21      0.69721357                   1_GWF-(1,189,10) -2.76982030E-04                    1_GWF-(1,53,74)
        108          4         22      0.53071022                    1_GWF-(4,53,74) -1.01231330E-04                    1_GWF-(4,53,74)
        109          4         23      0.28183594                   1_GWF-(4,106,52) -1.66329211E-04                    1_GWF-(1,53,74)
        110          4         24      0.38856885                    1_GWF-(4,53,74)  4.90797289E-05                   1_GWF-(4,106,52)
        111          4         25      0.13168849                   1_GWF-(4,106,52)  9.79433193E-05                   1_GWF-(4,106,52)
        112          4         26     -0.14770288                   1_GWF-(4,106,52) -2.33462821E-05                   1_GWF-(4,263,25)
        113          4         27      0.19692420                   1_GWF-(4,229,10)  1.85830653E-05                   1_GWF-(4,277,80)
        114          4         28     -0.56968239                    1_GWF-(4,53,74) -1.68813205E-04                    1_GWF-(1,53,74)
        115          4         29      0.47990066                    1_GWF-(4,53,74)  9.39448560E-06                   1_GWF-(4,277,80)
        116          4         30     -0.14658636                    1_GWF-(4,53,74) -6.08404856E-05                    1_GWF-(1,53,74)
        117          4         31      0.16168501                    1_GWF-(4,53,74)  5.22998097E-06                   1_GWF-(4,277,80)
        118          4         32 -5.38247709E-02                    1_GWF-(4,53,74) -2.16072040E-05                    1_GWF-(1,53,74)
        119          4         33  5.30270126E-02                    1_GWF-(4,53,74)  3.66675164E-06                   1_GWF-(4,277,80)
        120          4         34 -4.35598542E-02                    1_GWF-(4,53,74) -1.80472500E-05                    1_GWF-(1,53,74)
        121          4         35  4.35959949E-02                    1_GWF-(4,53,74)  2.40029124E-06                   1_GWF-(4,277,80)
        122          4         36 -1.26713168E-02                    1_GWF-(4,53,74) -6.86224525E-06                    1_GWF-(1,53,74)
        123          4         37  1.57751406E-02                    1_GWF-(4,53,74)  1.73905878E-06                   1_GWF-(4,277,80)
        124          4         38 -9.38404106E-03                  1_GWF-(4,204,219) -4.43667410E-06                    1_GWF-(1,53,74)
        125          5          1      -64.005256                   1_GWF-(4,103,33) -6.17767036E-02                   1_GWF-(4,259,18)
        126          5          2       98.925440                   1_GWF-(4,103,33) -3.27457390E-02                   1_GWF-(4,259,18)
        127          5          3       52.928512                   1_GWF-(4,141,31) -1.57609171E-02                   1_GWF-(4,259,18)
        128          5          4      -13.250077                   1_GWF-(4,141,31) -6.31455720E-03                   1_GWF-(4,259,18)
        129          5          5      -1.9568826                   1_GWF-(4,141,31) -3.80144211E-03                   1_GWF-(4,259,18)
        130          5          6     -0.75707231                    1_GWF-(4,223,8) -3.19243902E-03                   1_GWF-(4,259,18)
        131          5          7      -1.3219395                   1_GWF-(4,226,10) -4.77113224E-03                   1_GWF-(4,259,18)
        132          5          8     -0.82583801                   1_GWF-(4,260,16)  1.67523172E-03                   1_GWF-(4,260,17)
        133          5          9       4.0990466                    1_GWF-(4,72,55) -3.73089673E-03                   1_GWF-(4,259,18)
        134          5         10      -5.6850437                    1_GWF-(4,72,55)  2.35571074E-03                   1_GWF-(4,259,18)
        135          5         11       1.9571328                    1_GWF-(4,72,55)  1.36944314E-03                   1_GWF-(4,259,18)
        136          5         12      -1.0862580                    1_GWF-(4,72,55)  1.08298777E-03                   1_GWF-(4,259,18)
        137          5         13       6.3378479                   1_GWF-(4,259,18)  3.71349384E-03                   1_GWF-(4,259,18)
        138          5         14      -19.086882                   1_GWF-(4,259,18) -1.24314579E-03                   1_GWF-(4,259,18)
        139          5         15       5.2073585                   1_GWF-(4,259,18) -3.25710295E-04                   1_GWF-(4,259,18)
        140          5         16       1.0159605                   1_GWF-(4,259,18) -1.53578249E-04                    1_GWF-(4,67,50)
        141          5         17      0.38556772                   1_GWF-(4,259,18) -9.47532953E-05                    1_GWF-(4,67,50)
        142          5         18      0.23002317                   1_GWF-(4,246,16) -4.71310907E-05                    1_GWF-(4,67,50)
        143          5         19      0.15005803                   1_GWF-(4,233,15) -5.22653412E-05                    1_GWF-(4,67,50)
        144          5         20      0.10992361                   1_GWF-(4,233,14)  3.18758716E-05                   1_GWF-(4,106,52)
        145          5         21  7.23267305E-02                   1_GWF-(4,233,14)  3.37570964E-05                   1_GWF-(4,106,52)
        146          5         22      0.10242616                   1_GWF-(4,233,14)  1.11071982E-05                   1_GWF-(4,94,179)
        147          5         23     -0.13897722                  1_GWF-(4,104,141) -2.48792713E-05                   1_GWF-(4,259,18)
        148          5         24  5.98037141E-02                  1_GWF-(4,204,219) -2.71577472E-06                   1_GWF-(4,259,18)
        149          5         25 -3.34027183E-02                  1_GWF-(4,204,219) -1.48270000E-05                  1_GWF-(1,204,219)
        150          5         26  2.81591113E-02                  1_GWF-(4,204,219) -4.29833629E-06                  1_GWF-(1,204,219)
        151          5         27  1.76890109E-02                  1_GWF-(4,204,219)  2.32266382E-06                  1_GWF-(1,204,219)
        152          5         28 -6.46601842E-03                   1_GWF-(4,149,28) -4.96198978E-06                   1_GWF-(4,149,28)
        153          6          1      -57.624747                   1_GWF-(4,103,33) -3.29105802E-02                   1_GWF-(4,259,18)
        154          6          2      -53.574949                   1_GWF-(4,141,31) -1.74001452E-02                   1_GWF-(4,103,33)
        155          6          3       32.758724                   1_GWF-(4,103,33) -3.83087258E-03                   1_GWF-(4,103,33)
        156          6          4      -5.2703663                   1_GWF-(4,141,31) -1.89312254E-03                   1_GWF-(4,103,33)
        157          6          5      -4.4605793                    1_GWF-(4,53,74) -2.31279312E-03                    1_GWF-(4,53,74)
        158          6          6       4.8871265                    1_GWF-(4,53,74)  4.93672702E-04                   1_GWF-(4,272,28)
        159          6          7      -5.9030632                    1_GWF-(4,53,74) -2.21477887E-03                    1_GWF-(1,53,74)
        160          6          8       4.6714645                    1_GWF-(4,53,74) -4.27878749E-04                    1_GWF-(4,53,74)
        161          6          9      -5.2143826                    1_GWF-(4,53,74) -1.98870468E-03                    1_GWF-(1,53,74)
        162          6         10       2.9319312                    1_GWF-(4,53,74) -6.26059882E-04                    1_GWF-(1,53,74)
        163          6         11      -4.6864031                    1_GWF-(4,53,74) -1.94139238E-03                    1_GWF-(1,53,74)
        164          6         12      -3.7880118                    1_GWF-(4,224,9) -4.81783883E-04                    1_GWF-(1,53,74)
        165          6         13      -3.9333482                    1_GWF-(4,53,74) -1.75395282E-03                    1_GWF-(1,53,74)
        166          6         14       3.6322512                    1_GWF-(4,53,74) -3.88659569E-04                    1_GWF-(1,53,74)
        167          6         15      -1.5468996                    1_GWF-(4,53,74) -1.03293613E-03                    1_GWF-(1,53,74)
        168          6         16       2.4918800                    1_GWF-(4,53,74) -1.92604939E-04                    1_GWF-(1,53,74)
        169          6         17      0.72154379                   1_GWF-(1,188,11) -3.91932099E-04                  1_GWF-(4,204,219)
        170          6         18      0.77705505                   1_GWF-(1,188,11) -1.88375107E-04                  1_GWF-(4,204,219)
        171          6         19       1.1184969                   1_GWF-(1,188,11) -4.00707837E-04                  1_GWF-(1,204,219)
        172          6         20      0.92896007                   1_GWF-(1,187,11) -1.43099656E-04                  1_GWF-(1,204,219)
        173          6         21      0.83647852                   1_GWF-(1,187,11) -2.08448517E-04                  1_GWF-(1,204,219)
        174          6         22      0.47839756                   1_GWF-(1,187,11) -9.22585403E-05                  1_GWF-(1,204,219)
        175          6         23      0.29396884                   1_GWF-(1,186,11) -1.32443534E-04                  1_GWF-(1,204,219)
        176          6         24      0.27311111                  1_GWF-(4,204,219) -4.21501914E-05                  1_GWF-(1,204,219)
        177          6         25      0.18948580                  1_GWF-(4,229,213)  9.42454756E-05                  1_GWF-(4,229,213)
        178          6         26     -0.18635964                  1_GWF-(4,229,213)  3.47059779E-05                  1_GWF-(4,229,213)
        179          6         27      0.13861666                  1_GWF-(4,229,213)  7.91731353E-05                  1_GWF-(4,229,213)
        180          6         28     -0.15074551                  1_GWF-(4,229,213)  3.14446929E-05                  1_GWF-(4,229,213)
        181          6         29  7.85807794E-02                  1_GWF-(4,210,149)  4.89858676E-05                  1_GWF-(4,229,213)
        182          6         30 -8.37479101E-02                  1_GWF-(4,229,213)  2.27235172E-05                  1_GWF-(4,229,213)
        183          6         31 -4.56702567E-02                   1_GWF-(4,278,73)  3.64911594E-05                  1_GWF-(4,229,213)
        184          6         32 -6.05657377E-02                  1_GWF-(4,229,213)  1.75089180E-05                  1_GWF-(4,229,213)
        185          6         33  4.87083048E-02                  1_GWF-(4,229,213)  3.33476701E-05                  1_GWF-(4,229,213)
        186          6         34 -6.21169055E-02                  1_GWF-(4,229,213)  1.37884674E-05                  1_GWF-(4,229,213)
        187          6         35 -3.64171746E-02                   1_GWF-(4,279,75)  1.14330592E-05                  1_GWF-(4,229,213)
        188          6         36 -2.80840912E-02                   1_GWF-(4,279,76)  7.47892964E-06                  1_GWF-(4,229,213)
        189          6         37 -2.02145861E-02                   1_GWF-(4,279,76)  1.04594295E-05                  1_GWF-(4,229,213)
        190          6         38 -1.87629365E-02                   1_GWF-(4,279,76)  5.59026284E-06                  1_GWF-(4,229,213)
        191          6         39  3.96070490E-02                  1_GWF-(4,229,213)  1.81692538E-05                  1_GWF-(4,229,213)
        192          6         40 -8.13504237E-02                   1_GWF-(4,279,77)  1.80802965E-06                   1_GWF-(4,257,22)
        193          6         41  5.93808958E-02                  1_GWF-(4,229,213)  1.89150710E-05                  1_GWF-(4,229,213)
        194          6         42 -5.83973213E-02                  1_GWF-(4,229,213)  1.36464339E-06                   1_GWF-(4,272,27)
        195          6         43  1.62112470E-02                  1_GWF-(4,229,213)  5.68062091E-06                  1_GWF-(4,229,213)
        196          6         44 -1.64677700E-02                  1_GWF-(4,229,213)  1.11374300E-06                   1_GWF-(4,272,27)
        197          6         45  1.43482931E-02                  1_GWF-(4,229,213)  5.02060853E-06                  1_GWF-(4,229,213)
        198          6         46 -1.67148347E-02                   1_GWF-(4,275,23) -5.27000818E-07                  1_GWF-(2,111,183)
        199          6         47  1.10064539E-02                    1_GWF-(4,53,63)  1.11013507E-06                  1_GWF-(4,229,213)
        200          6         48 -1.44120925E-03                  1_GWF-(4,229,213)  6.57749937E-07                  1_GWF-(4,229,213)
        201          7          1      -71.268893                   1_GWF-(4,103,33) -4.04921902E-02                   1_GWF-(4,259,18)
        202          7          2      -65.608753                   1_GWF-(4,141,31) -3.95230595E-02                   1_GWF-(4,259,18)
        203          7          3       36.494553                   1_GWF-(4,141,31) -5.39126560E-03                   1_GWF-(4,259,18)
        204          7          4      -6.1702924                   1_GWF-(4,141,31) -3.89066828E-03                   1_GWF-(4,259,18)
        205          7          5      -1.3393336                   1_GWF-(4,179,13) -2.70783060E-03                   1_GWF-(4,259,18)
        206          7          6     -0.85577749                   1_GWF-(4,145,29)  9.18854128E-04                   1_GWF-(4,260,17)
        207          7          7      -1.1150397                   1_GWF-(4,194,10) -2.67579910E-03                   1_GWF-(4,259,18)
        208          7          8     -0.50698749                   1_GWF-(4,260,16)  9.94658630E-04                   1_GWF-(4,260,17)
        209          7          9     -0.74560985                    1_GWF-(4,223,9) -2.15482365E-03                   1_GWF-(4,259,18)
        210          7         10     -0.46231655                   1_GWF-(4,260,16)  1.15477599E-03                   1_GWF-(4,260,17)
        211          7         11      0.86988204                    1_GWF-(4,53,74)  1.55272506E-03                   1_GWF-(4,260,17)
        212          7         12     -0.32091698                   1_GWF-(4,260,16)  8.52563764E-04                   1_GWF-(4,260,17)
        213          7         13      -1.8976244                    1_GWF-(4,53,74)  7.71574521E-04                   1_GWF-(4,259,18)
        214          7         14      0.24402890                    1_GWF-(4,53,74)  5.81627452E-04                   1_GWF-(4,259,18)
        215          7         15      -1.8844717                    1_GWF-(4,53,74)  1.95371042E-03                   1_GWF-(4,259,18)
        216          7         16       1.5390498                    1_GWF-(4,53,74)  9.42792412E-04                   1_GWF-(4,259,18)
        217          7         17       2.5603603                   1_GWF-(4,259,18)  2.28907218E-03                   1_GWF-(4,259,18)
        218          7         18       9.5053242                   1_GWF-(4,260,17)  1.87939696E-03                   1_GWF-(4,259,18)
        219          7         19      -64.811112                   1_GWF-(4,259,18) -9.51714390E-03                   1_GWF-(4,259,18)
        220          7         20       38.127239                   1_GWF-(4,259,18) -6.06164688E-04                   1_GWF-(4,259,18)
        221          7         21       3.7536884                   1_GWF-(4,260,17) -6.16192819E-04                   1_GWF-(4,259,18)
        222          7         22       1.1535435                   1_GWF-(4,259,18) -1.40071130E-04                   1_GWF-(4,259,18)
        223          7         23      0.57098022                   1_GWF-(4,260,17) -2.42583703E-04                   1_GWF-(4,259,18)
        224          7         24     -0.39349436                    1_GWF-(4,53,74) -7.14520739E-05                   1_GWF-(4,259,18)
        225          7         25      0.21015980                   1_GWF-(4,247,15) -1.08780068E-04                   1_GWF-(4,259,18)
        226          7         26     -0.19685596                    1_GWF-(4,53,74) -3.54766909E-05                   1_GWF-(4,259,18)
        227          7         27      0.13691146                   1_GWF-(4,248,14) -6.04377172E-05                   1_GWF-(4,259,18)
        228          7         28     -0.12313043                    1_GWF-(4,53,74) -1.81815535E-05                   1_GWF-(4,259,18)
        229          7         29  7.27733712E-02                   1_GWF-(4,249,14)  3.60554406E-05                  1_GWF-(1,204,219)
        230          7         30 -8.11961738E-02                  1_GWF-(4,204,219) -9.04106086E-06                   1_GWF-(4,259,18)
        231          7         31  4.83553072E-02                  1_GWF-(4,204,219)  2.46243099E-05                  1_GWF-(1,204,219)
        232          7         32 -5.73179815E-02                  1_GWF-(4,204,219) -5.06041005E-06                   1_GWF-(4,257,22)
        233          7         33  4.42808812E-02                  1_GWF-(4,204,219)  2.00515695E-05                  1_GWF-(1,204,219)
        234          7         34 -4.52347029E-02                  1_GWF-(4,204,219)  3.97449127E-06                  1_GWF-(1,204,219)
        235          7         35  4.00856003E-02                  1_GWF-(4,204,219)  1.82221297E-05                  1_GWF-(1,204,219)
        236          7         36 -4.36706825E-02                  1_GWF-(4,204,219)  2.68841339E-06                  1_GWF-(1,204,219)
        237          7         37  1.74695820E-02                  1_GWF-(4,204,219)  8.89263787E-06                  1_GWF-(1,204,219)
        238          7         38 -2.18612368E-02                  1_GWF-(4,204,219) -1.71761133E-06                   1_GWF-(4,273,26)
        239          7         39  1.66604304E-02                  1_GWF-(4,204,219)  7.02825951E-06                  1_GWF-(1,204,219)
        240          7         40 -1.77424734E-02                  1_GWF-(4,204,219) -1.01583547E-06                   1_GWF-(4,272,27)
        241          7         41  8.56676058E-03                  1_GWF-(4,279,131)  3.74056311E-06                  1_GWF-(1,204,219)
        242          8          1      -61.424456                   1_GWF-(4,103,33) -2.78540047E-02                   1_GWF-(4,103,33)
        243          8          2      -47.323390                   1_GWF-(4,141,31) -2.69759002E-02                   1_GWF-(4,103,33)
        244          8          3       54.469578                   1_GWF-(4,103,33) -3.14031009E-03                   1_GWF-(4,103,33)
        245          8          4      -3.1142837                   1_GWF-(4,189,13) -2.02086781E-03                   1_GWF-(4,103,33)
        246          8          5      -2.3652831                    1_GWF-(4,53,74) -1.87099162E-03                    1_GWF-(4,53,74)
        247          8          6       3.6065480                    1_GWF-(4,53,74) -5.06508779E-04                    1_GWF-(4,53,74)
        248          8          7      -2.4279601                    1_GWF-(4,53,74) -1.13131208E-03                    1_GWF-(4,53,74)
        249          8          8       1.5060344                    1_GWF-(4,53,74) -4.86640764E-04                    1_GWF-(4,53,74)
        250          8          9      -2.2734277                    1_GWF-(4,53,74) -1.08437901E-03                    1_GWF-(1,53,74)
        251          8         10      -1.3512347                   1_GWF-(1,190,11) -5.83969118E-04                    1_GWF-(4,53,74)
        252          8         11      -2.5159240                    1_GWF-(4,53,74) -1.23142535E-03                    1_GWF-(1,53,74)
        253          8         12      -2.3250521                   1_GWF-(1,190,10) -4.21135361E-04                    1_GWF-(1,53,74)
        254          8         13      -2.6932733                   1_GWF-(1,190,10) -6.62396963E-04                    1_GWF-(1,53,74)
        255          8         14      -2.0818693                   1_GWF-(1,190,10) -2.66661457E-04                  1_GWF-(4,204,219)
        256          8         15      -1.2210774                   1_GWF-(4,229,10) -5.66682947E-04                  1_GWF-(1,204,219)
        257          8         16     -0.88668751                   1_GWF-(4,233,12) -2.60843114E-04                  1_GWF-(4,204,219)
        258          8         17     -0.85499314                  1_GWF-(4,204,219) -5.61995688E-04                  1_GWF-(1,204,219)
        259          8         18      0.89650664                  1_GWF-(4,204,219) -2.71259239E-04                  1_GWF-(4,204,219)
        260          8         19      0.74175182                   1_GWF-(1,187,11) -4.22838004E-04                  1_GWF-(1,204,219)
        261          8         20      0.85540281                  1_GWF-(4,204,219) -1.60720409E-04                  1_GWF-(1,204,219)
        262          8         21      0.86495945                   1_GWF-(1,186,11) -1.41327926E-04                  1_GWF-(1,204,219)
        263          8         22      0.70378150                   1_GWF-(1,185,11) -1.08205589E-04                  1_GWF-(1,204,219)
        264          8         23      0.52324927                   1_GWF-(1,185,11) -1.59592755E-04                  1_GWF-(1,204,219)
        265          8         24      0.33651839                    1_GWF-(4,97,37) -7.37733227E-05                  1_GWF-(1,204,219)
        266          8         25      0.28518873                   1_GWF-(4,149,28) -1.48497288E-04                  1_GWF-(1,204,219)
        267          8         26      0.30641362                  1_GWF-(4,204,219)  5.07825335E-05                   1_GWF-(4,149,28)
        268          8         27      0.12974084                    1_GWF-(4,97,37)  7.73277781E-05                   1_GWF-(4,149,28)
        269          8         28     -0.11782368                   1_GWF-(4,279,29)  3.88355007E-05                   1_GWF-(4,149,28)
        270          8         29     -0.11105042                   1_GWF-(4,280,30)  5.07384687E-05                   1_GWF-(4,149,28)
        271          8         30 -9.16819126E-02                   1_GWF-(4,278,73)  2.35372723E-05                   1_GWF-(4,149,28)
        272          8         31 -7.71753506E-02                   1_GWF-(4,278,73)  4.06841117E-05                    1_GWF-(4,97,37)
        273          8         32     -0.10547570                    1_GWF-(4,97,37)  1.58079847E-05                    1_GWF-(4,97,37)
        274          8         33 -6.30766970E-02                    1_GWF-(4,96,37)  3.67054553E-05                    1_GWF-(4,97,37)
        275          8         34     -0.14645052                    1_GWF-(4,97,37)  9.08581867E-06                   1_GWF-(4,277,80)
        276          8         35     -0.23380568                  1_GWF-(4,229,213) -7.77813662E-05                  1_GWF-(4,229,213)
        277          8         36      0.24745962                  1_GWF-(4,229,213)  3.99219299E-06                   1_GWF-(4,276,79)
        278          8         37 -2.23622518E-02                   1_GWF-(4,279,75) -6.03252561E-06                  1_GWF-(4,229,213)
        279          8         38 -2.62449750E-02                   1_GWF-(4,279,75) -1.17777329E-05                  1_GWF-(4,229,213)
        280          8         39  3.60920811E-02                  1_GWF-(4,229,213)  1.97341152E-06                  1_GWF-(2,111,183)
        281          8         40  3.77810306E-02                  1_GWF-(4,229,213)  1.20162844E-05                  1_GWF-(4,229,213)
        282          8         41 -4.13730203E-02                  1_GWF-(4,229,213) -1.15664045E-06                  1_GWF-(4,229,213)
        283          8         42  1.26904265E-02                   1_GWF-(4,279,70)  1.57396706E-06                   1_GWF-(4,278,65)
        284          8         43 -3.67753222E-02                  1_GWF-(4,229,213) -1.09700672E-05                  1_GWF-(4,229,213)
        285          8         44  3.48721170E-02                  1_GWF-(4,229,213)  8.25594138E-07                   1_GWF-(4,272,27)
        286          8         45  1.69289168E-02                  1_GWF-(4,229,213)  5.45254137E-06                  1_GWF-(4,229,213)
        287          8         46     -0.19221416                   1_GWF-(4,279,67) -7.23806755E-06                   1_GWF-(4,274,80)
        288          8         47      0.18384901                   1_GWF-(4,279,67)  5.81604220E-07                   1_GWF-(4,276,25)
        289          8         48  8.58429894E-03                   1_GWF-(4,276,25)  1.44091521E-06                   1_GWF-(4,269,32)
        290          9          1      -75.028346                   1_GWF-(4,103,33) -3.53487016E-02                   1_GWF-(4,103,33)
        291          9          2      -52.322467                   1_GWF-(4,141,31) -3.00035260E-02                   1_GWF-(4,103,33)
        292          9          3       60.361378                   1_GWF-(4,103,33) -3.57047866E-03                   1_GWF-(4,103,33)
        293          9          4      -2.9295722                   1_GWF-(4,189,13) -2.59857590E-03                   1_GWF-(4,103,33)
        294          9          5      -2.3880564                    1_GWF-(4,53,74) -2.04188553E-03                    1_GWF-(4,53,74)
        295          9          6       4.2524064                    1_GWF-(4,53,74) -4.92937220E-04                    1_GWF-(4,53,74)
        296          9          7      -1.8301664                    1_GWF-(4,53,74) -9.91508571E-04                    1_GWF-(4,53,74)
        297          9          8       1.4286338                    1_GWF-(4,53,74) -4.28803192E-04                    1_GWF-(4,53,74)
        298          9          9      -1.9766382                    1_GWF-(4,53,74) -1.01789936E-03                    1_GWF-(1,53,74)
        299          9         10      0.87697341                    1_GWF-(4,53,74) -6.47826728E-04                    1_GWF-(1,53,74)
        300          9         11      -2.6963437                    1_GWF-(4,53,74) -1.50900852E-03                    1_GWF-(1,53,74)
        301          9         12       1.9902954                    1_GWF-(4,53,74) -7.61437261E-04                    1_GWF-(1,53,74)
        302          9         13       2.6323276                    1_GWF-(4,53,74)  2.02821809E-04                   1_GWF-(4,259,18)
        303          9         14      0.67957554                    1_GWF-(4,53,74)  4.27771340E-04                   1_GWF-(4,259,18)
        304          9         15      0.38792670                   1_GWF-(4,227,11)  3.30184446E-04                   1_GWF-(4,259,18)
        305          9         16       1.7242831                  1_GWF-(4,204,219)  7.53683381E-04                  1_GWF-(1,204,219)
        306          9         17      -1.4323226                  1_GWF-(4,204,219)  2.39128147E-04                  1_GWF-(1,204,219)
        307          9         18       2.6371946                  1_GWF-(4,204,219)  1.12316349E-03                  1_GWF-(1,204,219)
        308          9         19       8.8691959                   1_GWF-(4,234,13)  6.68974479E-04                  1_GWF-(1,204,219)
        309          9         20      -82.437826                   1_GWF-(4,247,15) -9.74402081E-03                  1_GWF-(1,204,219)
        310          9         21       54.679485                   1_GWF-(4,247,15) -2.81164217E-04                  1_GWF-(1,204,219)
        311          9         22       4.6475309                   1_GWF-(4,233,13) -6.68220418E-04                  1_GWF-(1,204,219)
        312          9         23       1.6600736                  1_GWF-(4,204,219) -1.06565279E-04                  1_GWF-(1,204,219)
        313          9         24      0.65119126                   1_GWF-(4,233,13) -2.37692400E-04                  1_GWF-(1,204,219)
        314          9         25      0.55759996                  1_GWF-(4,204,219) -4.66575776E-05                  1_GWF-(1,204,219)
        315          9         26      0.23245588                  1_GWF-(4,280,157) -1.16076123E-04                  1_GWF-(1,204,219)
        316          9         27      0.27297300                  1_GWF-(4,204,219) -2.65751622E-05                  1_GWF-(4,279,151)
        317          9         28      0.18391851                  1_GWF-(4,280,157) -8.09381359E-05                  1_GWF-(1,204,219)
        318          9         29      0.18748784                  1_GWF-(4,204,219) -1.68820440E-05                  1_GWF-(4,279,151)
        319          9         30      0.13513201                  1_GWF-(4,279,156) -5.00516542E-05                  1_GWF-(1,204,219)
        320          9         31      0.11898358                  1_GWF-(4,204,219) -1.02784228E-05                  1_GWF-(4,279,151)
        321          9         32  6.56346509E-02                  1_GWF-(4,279,154)  2.86214901E-05                   1_GWF-(4,149,28)
        322          9         33  6.38853866E-02                  1_GWF-(4,204,219) -6.99045312E-06                  1_GWF-(4,279,151)
        323          9         34 -6.09635589E-02                  1_GWF-(4,229,213) -2.30091593E-05                  1_GWF-(4,229,213)
        324          9         35  6.38466854E-02                  1_GWF-(4,229,213) -4.61833749E-06                  1_GWF-(4,279,151)
        325          9         36 -3.39487714E-02                  1_GWF-(4,229,213) -1.34060496E-05                  1_GWF-(4,229,213)
        326          9         37  3.60237742E-02                  1_GWF-(4,229,213) -3.15270701E-06                  1_GWF-(4,279,151)
        327          9         38 -2.66637116E-02                  1_GWF-(4,229,213) -1.04289148E-05                  1_GWF-(4,229,213)
        328          9         39  2.58831157E-02                  1_GWF-(4,229,213) -2.25129484E-06                  1_GWF-(4,279,151)
        329          9         40 -1.52793587E-02                  1_GWF-(4,229,213) -7.07085689E-06                  1_GWF-(4,229,213)
        330          9         41  1.95415613E-02                  1_GWF-(4,229,213) -1.54935414E-06                  1_GWF-(4,279,151)
        331          9         42 -1.23046112E-02                  1_GWF-(4,229,213) -4.79156653E-06                  1_GWF-(4,229,213)
        332          9         43  1.36890243E-02                  1_GWF-(4,229,213) -8.53953087E-07                  1_GWF-(4,279,151)
        333          9         44  1.91277304E-02                  1_GWF-(4,279,148) -3.95282092E-07                  1_GWF-(4,229,213)
        334          9         45  1.88258617E-02                  1_GWF-(4,229,213)  5.64917268E-06                  1_GWF-(4,229,213)
        335          9         46 -1.75082511E-02                  1_GWF-(4,229,213)  1.61128900E-07                   1_GWF-(4,273,26)
        336          9         47 -6.01348594E-03                  1_GWF-(4,229,213) -1.88571516E-06                  1_GWF-(4,229,213)
        337         10          1      -63.197430                   1_GWF-(4,103,33) -2.88748442E-02                   1_GWF-(4,103,33)
        338         10          2       37.893637                    1_GWF-(4,68,50) -2.71360361E-02                   1_GWF-(4,103,33)
        339         10          3       52.851121                   1_GWF-(4,103,33) -3.81678414E-03                   1_GWF-(4,103,33)
        340         10          4      -2.7371647                   1_GWF-(4,189,12) -3.06049145E-03                   1_GWF-(4,103,33)
        341         10          5       4.3331112                   1_GWF-(4,103,33) -1.24592977E-03                    1_GWF-(4,53,74)
        342         10          6       1.2130776                    1_GWF-(4,53,74) -7.09611945E-04                    1_GWF-(4,53,74)
        343         10          7     -0.84764849                   1_GWF-(4,189,10) -5.56190078E-04                    1_GWF-(4,53,74)
        344         10          8     -0.84474270                   1_GWF-(4,189,10) -5.26455747E-04                    1_GWF-(4,53,74)
        345         10          9     -0.87542625                   1_GWF-(4,187,11) -6.56511623E-04                    1_GWF-(4,53,74)
        346         10         10     -0.92955616                   1_GWF-(1,187,11) -6.45062394E-04                    1_GWF-(4,53,74)
        347         10         11      -1.1132130                   1_GWF-(1,187,11) -6.18227818E-04                    1_GWF-(4,53,74)
        348         10         12      -1.1851385                   1_GWF-(1,186,11) -3.15775038E-04                    1_GWF-(4,53,74)
        349         10         13      -1.3288663                   1_GWF-(1,186,11) -1.73694888E-04                  1_GWF-(1,204,219)
        350         10         14      -1.4642461                   1_GWF-(1,186,11) -3.01079137E-04                  1_GWF-(1,204,219)
        351         10         15      -1.0617550                   1_GWF-(1,186,11) -3.26890411E-04                  1_GWF-(1,204,219)
        352         10         16     -0.74757144                   1_GWF-(1,186,11) -3.51919978E-04                  1_GWF-(1,204,219)
        353         10         17     -0.44232509                  1_GWF-(4,280,165) -3.50386083E-04                  1_GWF-(1,204,219)
        354         10         18     -0.33526871                  1_GWF-(4,280,159) -2.93250647E-04                  1_GWF-(1,204,219)
        355         10         19     -0.28147675                  1_GWF-(4,280,155) -2.92388827E-04                  1_GWF-(1,204,219)
        356         10         20     -0.31910897                  1_GWF-(4,280,153) -2.02427084E-04                  1_GWF-(1,204,219)
        357         10         21     -0.36551036                  1_GWF-(4,280,151) -2.18968767E-04                  1_GWF-(1,204,219)
        358         10         22     -0.40770416                  1_GWF-(4,280,150) -1.93210940E-04                  1_GWF-(1,204,219)
        359         10         23     -0.51169720                  1_GWF-(4,280,149) -1.02093505E-04                  1_GWF-(4,229,213)
        360         10         24     -0.42094997                  1_GWF-(4,280,146) -1.32530563E-04                  1_GWF-(4,229,213)
        361         10         25     -0.34011736                  1_GWF-(4,280,142) -1.33441211E-04                  1_GWF-(4,229,213)
        362         10         26     -0.27867494                  1_GWF-(4,280,134) -1.11220690E-04                  1_GWF-(4,229,213)
        363         10         27     -0.22534120                  1_GWF-(4,280,127) -1.36096223E-04                  1_GWF-(4,229,213)
        364         10         28     -0.21982311                  1_GWF-(4,280,123) -8.15538759E-05                  1_GWF-(4,229,213)
        365         10         29     -0.24863425                  1_GWF-(4,280,118) -6.82762706E-05                  1_GWF-(4,229,213)
        366         10         30     -0.26852743                   1_GWF-(4,275,24) -5.52263179E-05                  1_GWF-(4,229,213)
        367         10         31     -0.24482539                   1_GWF-(4,275,24) -6.07669355E-05                  1_GWF-(4,229,213)
        368         10         32     -0.29822821                   1_GWF-(4,275,24)  3.34203329E-05                   1_GWF-(4,272,27)
        369         10         33       1.1915697                  1_GWF-(4,229,213)  3.46790616E-04                  1_GWF-(4,229,213)
        370         10         34      -1.1210182                  1_GWF-(4,229,213)  2.70910750E-05                   1_GWF-(4,272,27)
        371         10         35     -0.96424230                  1_GWF-(4,229,213) -3.10597750E-04                  1_GWF-(4,229,213)
        372         10         36       1.1714865                  1_GWF-(4,229,213)  5.94143862E-05                  1_GWF-(4,229,213)
        373         10         37     -0.22926758                  1_GWF-(4,229,213)  1.48381824E-05                   1_GWF-(4,272,27)
        374         10         38      0.17503646                  1_GWF-(4,229,213)  4.22678845E-05                  1_GWF-(4,229,213)
        375         10         39     -0.13708667                  1_GWF-(4,229,213)  1.76871379E-05                   1_GWF-(4,272,27)
        376         10         40     -0.83577581                   1_GWF-(4,279,78)  9.48173137E-05                  1_GWF-(4,229,213)
        377         10         41     -0.30480060                  1_GWF-(4,229,213)  3.75558142E-06                   1_GWF-(4,274,25)
        378         10         42 -8.12359093E-02                  1_GWF-(4,226,219) -2.33278103E-05                  1_GWF-(4,226,219)
        379         10         43  9.17578692E-02                  1_GWF-(4,226,219)  7.14894802E-06                  1_GWF-(4,226,219)
        380         10         44 -2.67726511E-02                  1_GWF-(4,226,219)  2.27263132E-06                   1_GWF-(4,273,26)
        381         10         45 -1.10706616E-02                   1_GWF-(4,249,13)  2.05650383E-06                   1_GWF-(4,272,27)
        382         10         46 -1.99700980E-02                   1_GWF-(4,260,17)  2.37646793E-06                  1_GWF-(4,226,219)
        383         10         47  5.42234983E-02                   1_GWF-(4,256,16)  4.90085099E-06                   1_GWF-(4,276,25)
        384         10         48 -5.06761486E-02                   1_GWF-(4,256,16)  2.01844123E-06                  1_GWF-(4,226,219)
        385         10         49 -2.19292662E-02                   1_GWF-(4,255,16)  1.99129527E-06                  1_GWF-(4,226,219)
        386         10         50 -2.65273670E-02                   1_GWF-(4,260,17) -1.05246348E-06                   1_GWF-(4,265,26)
        387         10         51  1.75302750E-02                   1_GWF-(4,260,17) -4.57578097E-07                  1_GWF-(4,229,213)
        388         10         52 -1.01445567E-03                  1_GWF-(4,279,152)  2.99501685E-07                  1_GWF-(4,279,152)
        389         11          1      -68.736788                   1_GWF-(4,103,33) -3.19392546E-02                   1_GWF-(4,103,33)
        390         11          2       39.537535                    1_GWF-(4,68,50) -2.60203104E-02                   1_GWF-(4,103,33)
        391         11          3       47.760916                   1_GWF-(4,103,33) -4.99672486E-03                   1_GWF-(4,103,33)
        392         11          4      -2.8721475                    1_GWF-(4,53,74) -4.65993931E-03                   1_GWF-(4,103,33)
        393         11          5       8.0606856                   1_GWF-(4,103,33) -1.05435969E-03                    1_GWF-(4,53,74)
        394         11          6     -0.86245914                   1_GWF-(4,103,34) -8.75905760E-04                    1_GWF-(4,53,74)
        395         11          7       1.0490772                    1_GWF-(4,53,74) -4.30628419E-04                    1_GWF-(4,53,74)
        396         11          8     -0.66855729                   1_GWF-(1,187,10) -5.34431152E-04                    1_GWF-(4,53,74)
        397         11          9     -0.59289977                   1_GWF-(1,186,11) -4.77097182E-04                    1_GWF-(4,53,74)
        398         11         10      -1.1915610                    1_GWF-(4,53,74) -7.65415181E-04                    1_GWF-(4,53,74)
        399         11         11     -0.61952925                   1_GWF-(1,186,11) -5.94191096E-04                    1_GWF-(4,53,74)
        400         11         12      -2.3348182                  1_GWF-(4,204,219) -8.47554381E-04                  1_GWF-(1,204,219)
        401         11         13       2.4852244                  1_GWF-(4,204,219)  1.16431903E-04                  1_GWF-(4,279,171)
        402         11         14       1.0435735                    1_GWF-(4,53,74)  4.32031225E-04                    1_GWF-(1,53,74)
        403         11         15      0.75615759                  1_GWF-(4,225,195)  1.58036036E-04                    1_GWF-(1,53,74)
        404         11         16       1.7389368                    1_GWF-(4,53,74)  7.19469634E-04                    1_GWF-(1,53,74)
        405         11         17       1.1638376                   1_GWF-(4,103,33)  2.22537650E-04                    1_GWF-(1,53,74)
        406         11         18       1.7790669                    1_GWF-(4,53,74)  7.51399030E-04                    1_GWF-(1,53,74)
        407         11         19       3.2655976                  1_GWF-(4,280,165)  2.68914009E-04                  1_GWF-(4,279,171)
        408         11         20       15.515768                  1_GWF-(4,280,162)  1.54773565E-03                  1_GWF-(4,225,195)
        409         11         21      -64.268355                  1_GWF-(4,280,162) -7.65309530E-04                  1_GWF-(4,279,172)
        410         11         22       26.952553                  1_GWF-(4,280,163) -8.44539029E-04                   1_GWF-(4,149,28)
        411         11         23       4.5697520                  1_GWF-(4,280,162) -9.21087794E-05                  1_GWF-(4,279,171)
        412         11         24       1.3803011                  1_GWF-(4,280,165) -1.94713843E-04                   1_GWF-(4,149,28)
        413         11         25      0.64174499                   1_GWF-(4,149,28) -4.78400169E-05                  1_GWF-(4,279,171)
        414         11         26      0.37691525                  1_GWF-(4,280,166)  1.35655313E-04                  1_GWF-(4,229,213)
        415         11         27     -0.30699988                  1_GWF-(4,229,213)  3.79707207E-05                  1_GWF-(4,229,213)
        416         11         28      0.20144240                  1_GWF-(4,280,166)  8.78378338E-05                  1_GWF-(4,229,213)
        417         11         29     -0.23094957                  1_GWF-(4,229,213) -2.54274907E-05                  1_GWF-(4,278,156)
        418         11         30      0.17789443                  1_GWF-(4,280,166)  4.61474166E-05                  1_GWF-(4,229,213)
        419         11         31      0.15090035                  1_GWF-(4,280,165) -1.74246676E-05                  1_GWF-(4,279,151)
        420         11         32     -0.11743630                  1_GWF-(4,229,213) -2.86849641E-05                  1_GWF-(4,229,213)
        421         11         33      0.43644996                  1_GWF-(4,279,161) -1.35857804E-04                  1_GWF-(4,229,213)
        422         11         34      0.43724643                  1_GWF-(4,229,213) -6.53590154E-06                  1_GWF-(4,279,151)
        423         11         35  3.17942749E-02                  1_GWF-(4,279,159)  1.08711551E-05                  1_GWF-(4,229,213)
        424         11         36  2.91828674E-02                  1_GWF-(4,279,160) -5.06334890E-06                  1_GWF-(4,279,151)
        425         11         37  6.05006888E-02                  1_GWF-(4,279,160) -3.58534173E-06                  1_GWF-(4,279,151)
        426         11         38     -0.10076616                  1_GWF-(4,229,213) -3.05842015E-05                  1_GWF-(4,229,213)
        427         11         39  9.37780129E-02                  1_GWF-(4,229,213) -1.02035578E-06                  1_GWF-(4,275,146)
        428         11         40  4.17019297E-02                    1_GWF-(4,35,71) -6.35031447E-06                  1_GWF-(4,229,213)
        429         11         41  1.83809463E-02                  1_GWF-(4,229,213)  7.01640511E-07                   1_GWF-(4,272,27)
        430         11         42  3.04257021E-03                  1_GWF-(4,280,154) -1.10394846E-06                  1_GWF-(4,229,213)
        431         12          1      -56.399379                   1_GWF-(4,103,33) -2.56852351E-02                   1_GWF-(4,103,33)
        432         12          2      -34.439171                    1_GWF-(4,72,55) -1.81968079E-02                   1_GWF-(4,103,33)
        433         12          3       30.040185                   1_GWF-(4,103,33) -4.95314925E-03                   1_GWF-(4,103,33)
        434         12          4      -3.5565606                    1_GWF-(4,53,74) -4.86764130E-03                   1_GWF-(4,103,33)
        435         12          5       9.2881820                   1_GWF-(4,103,33) -7.02319364E-04                    1_GWF-(4,53,74)
        436         12          6      -1.0643975                    1_GWF-(4,53,74) -9.37133021E-04                    1_GWF-(4,53,74)
        437         12          7       1.6714067                    1_GWF-(4,53,74) -2.90675329E-04                    1_GWF-(4,53,74)
        438         12          8      -1.1729703                    1_GWF-(4,53,74) -5.69543035E-04                    1_GWF-(4,53,74)
        439         12          9     -0.64830395                    1_GWF-(4,74,47) -3.30918542E-04                    1_GWF-(4,53,74)
        440         12         10      -1.5983641                    1_GWF-(4,53,74) -7.13028532E-04                    1_GWF-(4,53,74)
        441         12         11       1.0931838                    1_GWF-(4,53,74) -2.76527378E-04                    1_GWF-(4,53,74)
        442         12         12     -0.60144962                    1_GWF-(4,75,45)  1.94633130E-04                  1_GWF-(4,229,213)
        443         12         13     -0.43771886                    1_GWF-(1,75,46)  1.43086625E-04                  1_GWF-(4,229,213)
        444         12         14      0.85598365                  1_GWF-(4,229,213)  4.27224725E-04                  1_GWF-(4,229,213)
        445         12         15      -2.5206100                  1_GWF-(4,229,213) -3.56148833E-04                  1_GWF-(4,229,213)
        446         12         16       1.0596388                  1_GWF-(4,229,213)  1.11934430E-04                  1_GWF-(4,279,171)
        447         12         17      -3.1389298                  1_GWF-(4,229,213) -9.81272396E-04                  1_GWF-(4,229,213)
        448         12         18       3.0534079                  1_GWF-(4,229,213)  1.07692377E-04                  1_GWF-(4,279,171)
        449         12         19      -2.0226382                  1_GWF-(4,229,213) -6.51712854E-04                  1_GWF-(4,229,213)
        450         12         20       1.9548520                  1_GWF-(4,229,213)  1.19390365E-04                  1_GWF-(4,279,171)
        451         12         21      -2.7250076                  1_GWF-(4,229,213) -9.02507521E-04                  1_GWF-(4,229,213)
        452         12         22       6.5904698                  1_GWF-(4,280,161)  2.55593963E-04                  1_GWF-(4,279,171)
        453         12         23      -93.519747                  1_GWF-(4,280,160)  4.49668279E-03                  1_GWF-(4,229,213)
        454         12         24       69.247667                  1_GWF-(4,280,160) -1.60756943E-04                  1_GWF-(4,279,171)
        455         12         25       4.5217364                  1_GWF-(4,280,161)  3.00491173E-04                  1_GWF-(4,229,213)
        456         12         26       1.3034368                  1_GWF-(4,280,161) -5.93458382E-05                  1_GWF-(4,278,156)
        457         12         27      0.77246026                  1_GWF-(4,280,164)  2.32782925E-04                  1_GWF-(4,229,213)
        458         12         28     -0.68073982                  1_GWF-(4,229,213) -3.76895407E-05                  1_GWF-(4,278,156)
        459         12         29      0.33036184                  1_GWF-(4,280,165)  1.21152153E-04                  1_GWF-(4,229,213)
        460         12         30     -0.31903315                  1_GWF-(4,229,213) -2.71413860E-05                  1_GWF-(4,278,156)
        461         12         31      0.33508666                  1_GWF-(4,229,213)  1.28522351E-04                  1_GWF-(4,229,213)
        462         12         32     -0.35800444                  1_GWF-(4,229,213) -1.76467228E-05                  1_GWF-(4,279,151)
        463         12         33      0.21035725                  1_GWF-(4,229,213)  8.42426531E-05                  1_GWF-(4,229,213)
        464         12         34     -0.24216200                  1_GWF-(4,229,213) -1.22587598E-05                  1_GWF-(4,279,151)
        465         12         35      0.11388422                  1_GWF-(4,229,213)  4.49338102E-05                  1_GWF-(4,229,213)
        466         12         36     -0.12982601                  1_GWF-(4,229,213) -9.61752123E-06                  1_GWF-(4,279,151)
        467         12         37      0.13252636                  1_GWF-(4,229,213)  4.64509257E-05                  1_GWF-(4,229,213)
        468         12         38     -0.13493552                  1_GWF-(4,229,213) -7.26449096E-06                  1_GWF-(4,279,151)
        469         12         39      0.15914069                  1_GWF-(4,229,213)  5.43904411E-05                  1_GWF-(4,229,213)
        470         12         40     -0.17954646                  1_GWF-(4,229,213) -3.86080036E-06                  1_GWF-(4,279,151)
        471         12         41  3.46963323E-02                  1_GWF-(4,229,213)  8.87774930E-06                  1_GWF-(4,229,213)
        472         12         42  8.90667906E-02                  1_GWF-(4,279,162)  1.69079835E-05                  1_GWF-(4,229,213)
        473         12         43 -4.55061872E-02                  1_GWF-(4,229,213)  2.58529507E-06                  1_GWF-(4,229,213)
        474         12         44 -3.29724676E-02                  1_GWF-(4,229,213) -7.79771479E-06                  1_GWF-(4,229,213)
        475         12         45  2.66333919E-02                  1_GWF-(4,279,162) -1.43382846E-06                  1_GWF-(4,279,151)
        476         12         46 -1.37844797E-02                  1_GWF-(2,211,162) -6.51659194E-06                  1_GWF-(2,211,162)
        477         12         47  1.38352431E-02                  1_GWF-(2,211,162) -1.20980816E-06                  1_GWF-(4,279,151)
        478         12         48  1.24004011E-02                  1_GWF-(4,279,161)  2.79248039E-06                    1_GWF-(4,68,50)
        479         12         49  6.51324307E-03                  1_GWF-(4,279,161)  8.50257968E-07                   1_GWF-(4,271,27)
        480         13          1      -54.608309                   1_GWF-(4,103,33) -2.50246218E-02                   1_GWF-(4,103,33)
        481         13          2      -34.712555                    1_GWF-(4,72,55) -1.47017816E-02                   1_GWF-(4,103,33)
        482         13          3       20.303632                   1_GWF-(4,103,33) -5.78497608E-03                   1_GWF-(4,103,33)
        483         13          4      -3.4088558                    1_GWF-(4,53,74) -5.28479373E-03                   1_GWF-(4,103,33)
        484         13          5       10.299848                   1_GWF-(4,103,33) -6.69489110E-04                    1_GWF-(4,53,74)
        485         13          6      -1.1252091                    1_GWF-(4,53,74) -9.44540812E-04                    1_GWF-(4,53,74)
        486         13          7       1.8438047                    1_GWF-(4,53,74) -2.60759578E-04                    1_GWF-(4,53,74)
        487         13          8      -1.0355303                    1_GWF-(4,53,74) -5.17236526E-04                    1_GWF-(4,53,74)
        488         13          9      0.55826038                    1_GWF-(4,53,74) -2.66943241E-04                    1_GWF-(4,53,74)
        489         13         10      -1.4538626                    1_GWF-(4,53,74) -6.16541180E-04                    1_GWF-(4,53,74)
        490         13         11       1.0020674                    1_GWF-(4,53,74) -2.31371715E-04                    1_GWF-(4,53,74)
        491         13         12     -0.39074999                    1_GWF-(4,97,37)  2.27011120E-04                  1_GWF-(4,229,213)
        492         13         13      -1.0317302                  1_GWF-(4,229,213)  1.02281479E-04                  1_GWF-(4,279,171)
        493         13         14      0.23330443                    1_GWF-(4,75,46)  1.03848311E-04                  1_GWF-(4,279,171)
        494         13         15     -0.99931046                  1_GWF-(4,229,213) -3.98509641E-04                  1_GWF-(4,229,213)
        495         13         16       1.1692878                    1_GWF-(4,77,45)  1.17308076E-04                  1_GWF-(4,279,171)
        496         13         17      -1.3049451                  1_GWF-(4,229,213) -5.46012854E-04                  1_GWF-(4,229,213)
        497         13         18       1.7034250                    1_GWF-(1,78,45)  1.48959599E-04                  1_GWF-(4,279,171)
        498         13         19      -2.4420507                  1_GWF-(4,229,213) -9.04494307E-04                  1_GWF-(4,229,213)
        499         13         20       3.1403135                   1_GWF-(1,101,35)  2.25399413E-04                  1_GWF-(4,279,172)
        500         13         21       8.1090380                  1_GWF-(4,280,173) -1.74889198E-03                  1_GWF-(4,229,213)
        501         13         22      -166.57501                  1_GWF-(4,280,174) -2.62521882E-03                  1_GWF-(4,279,172)
        502         13         23       132.80212                  1_GWF-(4,280,174)  5.59091250E-04                  1_GWF-(4,229,213)
        503         13         24       6.4678693                  1_GWF-(4,280,174) -1.14468130E-04                  1_GWF-(4,279,172)
        504         13         25       2.1451573                   1_GWF-(1,101,35)  1.83098309E-04                  1_GWF-(4,229,213)
        505         13         26      0.80173483                  1_GWF-(4,280,174) -5.82535445E-05                  1_GWF-(4,279,172)
        506         13         27      0.55922630                  1_GWF-(4,279,239)  1.80582888E-04                  1_GWF-(4,229,213)
        507         13         28     -0.48583225                  1_GWF-(4,229,213) -4.06978401E-05                  1_GWF-(4,279,171)
[...]
       1107         25         24       80.213202                  1_GWF-(1,247,228)  1.28235880E-04                  1_GWF-(4,244,203)
       1108         25         25      -372.18444                  1_GWF-(1,248,231) -1.46911185E-03                    1_GWF-(1,53,74)
       1109         25         26       225.71361                  1_GWF-(1,248,233) -3.49294422E-05                    1_GWF-(1,53,74)
       1110         25         27       18.490694                  1_GWF-(1,248,233) -1.99216490E-05                    1_GWF-(1,53,74)
       1111         25         28       6.3428874                  1_GWF-(1,248,234) -1.03554491E-05                  1_GWF-(4,229,208)
       1112         25         29       4.2539555                  1_GWF-(1,248,235) -1.72402057E-05                  1_GWF-(1,280,205)
       1113         25         30     -0.60882093                  1_GWF-(1,249,233) -3.58233696E-06                  1_GWF-(4,279,225)
       1114         25         31      0.98843082                  1_GWF-(1,248,238)  6.35724164E-06                  1_GWF-(1,280,205)
       1115         25         32      0.16331917                  1_GWF-(1,246,239) -2.45731374E-06                  1_GWF-(4,279,225)
       1116         25         33      0.19380950                  1_GWF-(1,246,239)  2.28553568E-06                   1_GWF-(4,106,52)
       1117         25         34     -0.18775642                  1_GWF-(1,248,217)  1.11779185E-05                    1_GWF-(1,53,74)
       1118         25         35 -2.95206471E-02                    1_GWF-(4,53,74)  2.67865377E-06                   1_GWF-(4,106,52)
       1119         25         36  2.14948430E-02                  1_GWF-(1,248,219)  1.84854423E-06                   1_GWF-(4,106,52)
       1120         25         37      0.30722598                  1_GWF-(1,248,220) -2.02434544E-06                  1_GWF-(4,280,221)
       1121         25         38     -0.93636989                  1_GWF-(1,248,221)  1.49040316E-06                    1_GWF-(4,94,43)
       1122         25         39     -0.66148564                  1_GWF-(1,248,221) -3.15345214E-06                    1_GWF-(4,94,43)
       1123         25         40      0.60137190                  1_GWF-(1,248,221) -2.04152770E-06                    1_GWF-(4,94,43)
       1124         25         41      0.12605680                  1_GWF-(1,248,222) -1.34392876E-06                  1_GWF-(4,279,225)
       1125         25         42     -0.68016152                  1_GWF-(1,247,223) -1.23425746E-05                    1_GWF-(4,94,43)
       1126         25         43      0.76881423                  1_GWF-(1,247,225) -5.73485835E-06                    1_GWF-(4,94,43)
       1127         25         44  1.49376090E-02                  1_GWF-(4,229,213) -1.17815089E-06                  1_GWF-(4,279,225)
       1128         25         45  2.12481242E-02                  1_GWF-(1,239,240) -2.75327656E-06                  1_GWF-(1,280,205)
       1129         25         46  1.57613944E-02                  1_GWF-(4,280,205) -1.12702949E-06                  1_GWF-(4,279,225)
       1130         25         47  1.12307987E-02                  1_GWF-(1,238,240) -1.70129891E-06                    1_GWF-(4,94,43)
       1131         25         48  9.72159773E-03                  1_GWF-(4,234,231) -1.08884518E-06                  1_GWF-(4,279,225)
       1132         26          1      -5.0239983                  1_GWF-(4,229,213) -1.53981256E-03                  1_GWF-(4,229,213)
       1133         26          2      -9.2278288                  1_GWF-(4,226,197) -1.37288039E-03                  1_GWF-(4,226,197)
       1134         26          3       4.7984126                  1_GWF-(4,226,197) -3.54266547E-04                  1_GWF-(4,229,213)
       1135         26          4     -0.16145696                  1_GWF-(4,271,216) -3.67642579E-04                  1_GWF-(4,229,213)
       1136         26          5      0.86644693                  1_GWF-(4,229,213) -9.09385251E-05                  1_GWF-(4,229,213)
       1137         26          6      0.14666053                  1_GWF-(4,229,213)  5.07050458E-05                  1_GWF-(4,280,234)
       1138         26          7     -0.16899084                  1_GWF-(4,229,213) -7.91796044E-05                  1_GWF-(4,229,213)
       1139         26          8      0.21876045                  1_GWF-(4,229,213)  1.92372277E-05                  1_GWF-(4,280,234)
       1140         26          9      0.15577905                  1_GWF-(4,229,213)  4.51090274E-05                  1_GWF-(4,229,213)
       1141         26         10     -0.11893740                  1_GWF-(4,229,213)  2.28931046E-05                  1_GWF-(4,229,213)
       1142         26         11 -6.46791558E-02                  1_GWF-(4,229,213)  9.10032382E-06                  1_GWF-(4,229,213)
       1143         26         12 -8.26412509E-02                  1_GWF-(1,245,217)  1.58132117E-05                  1_GWF-(4,229,213)
       1144         26         13 -4.73166198E-02                  1_GWF-(4,229,213)  9.05028008E-06                  1_GWF-(4,229,213)
       1145         26         14 -2.47020364E-02                  1_GWF-(4,229,213)  4.85535475E-06                  1_GWF-(4,279,218)
       1146         26         15 -5.15824277E-02                  1_GWF-(4,229,213) -9.56516983E-06                  1_GWF-(1,229,213)
       1147         26         16  7.86480293E-02                  1_GWF-(4,229,213)  4.37789245E-06                  1_GWF-(4,279,218)
       1148         26         17      0.12349316                  1_GWF-(1,241,239)  9.92177520E-06                  1_GWF-(1,280,205)
       1149         26         18       1.1182145                  1_GWF-(1,245,221)  8.36257408E-06                   1_GWF-(4,103,33)
       1150         26         19 -5.46890137E-02                  1_GWF-(4,234,231)  3.73755319E-06                  1_GWF-(4,240,204)
       1151         26         20      0.41960434                  1_GWF-(1,246,222)  4.31743222E-06                  1_GWF-(4,240,204)
       1152         26         21       2.3782712                  1_GWF-(1,248,239) -5.23310162E-05                    1_GWF-(1,53,74)
       1153         26         22       2.7053555                  1_GWF-(1,247,230)  9.33261892E-06                  1_GWF-(4,239,239)
       1154         26         23       2.5910499                  1_GWF-(4,249,237) -2.15875055E-05                    1_GWF-(4,72,55)
       1155         26         24       4.3587238                  1_GWF-(1,248,235)  1.66656647E-05                  1_GWF-(4,239,239)
       1156         26         25       8.6591082                  1_GWF-(1,249,236)  2.58258910E-05                  1_GWF-(4,239,239)
       1157         26         26       110.44092                  1_GWF-(1,249,237) -3.78800184E-04                    1_GWF-(1,53,74)
       1158         26         27      -151.42585                  1_GWF-(1,249,237) -1.66129811E-05                  1_GWF-(4,239,239)
       1159         26         28       10.115922                  1_GWF-(1,249,237)  1.34118014E-05                    1_GWF-(1,53,74)
       1160         26         29       4.9206271                  1_GWF-(1,250,237) -8.05625554E-06                  1_GWF-(1,280,205)
       1161         26         30     -0.20977757                  1_GWF-(1,250,236) -2.35159150E-06                  1_GWF-(4,279,225)
       1162         26         31       1.5564400                  1_GWF-(1,249,238) -1.49719301E-06                  1_GWF-(4,280,221)
       1163         26         32     -0.66033435                  1_GWF-(1,248,221)  4.46721299E-06                  1_GWF-(1,280,205)
       1164         26         33      0.14204411                  1_GWF-(4,273,240) -1.28866493E-06                  1_GWF-(1,280,205)
       1165         26         34 -3.24355843E-02                  1_GWF-(4,251,237)  7.01344014E-07                  1_GWF-(4,279,119)
       1166         26         35 -3.72484280E-03                  1_GWF-(4,280,205)  8.29259928E-07                    1_GWF-(4,75,45)
       1167         27          1      -3.0884715                  1_GWF-(4,229,213) -9.49139557E-04                  1_GWF-(4,229,213)
       1168         27          2      -5.8946225                  1_GWF-(4,226,197) -8.83602158E-04                  1_GWF-(4,226,197)
       1169         27          3       3.0959304                  1_GWF-(4,226,197) -2.09737044E-04                  1_GWF-(4,229,213)
       1170         27          4     -0.10137268                  1_GWF-(4,271,216) -2.31087297E-04                  1_GWF-(4,229,213)
       1171         27          5      0.54848148                  1_GWF-(4,229,213) -5.68459418E-05                  1_GWF-(4,229,213)
       1172         27          6  9.81173959E-02                  1_GWF-(4,229,213)  2.86355267E-05                  1_GWF-(4,280,234)
       1173         27          7     -0.11672809                  1_GWF-(4,229,213) -5.25813332E-05                  1_GWF-(4,229,213)
       1174         27          8      0.14865622                  1_GWF-(4,229,213)  1.08201228E-05                  1_GWF-(4,280,234)
       1175         27          9 -3.84455534E-02                  1_GWF-(4,229,213) -1.07164115E-05                  1_GWF-(1,229,213)
       1176         27         10  5.38216380E-02                  1_GWF-(4,229,213)  6.63504631E-06                  1_GWF-(4,229,213)
       1177         27         11 -7.02870463E-02                  1_GWF-(4,244,214)  1.27886020E-05                  1_GWF-(4,229,213)
       1178         27         12 -4.27920570E-02                  1_GWF-(4,229,213)  2.91989264E-06                  1_GWF-(4,229,213)
       1179         27         13 -4.45503927E-02                  1_GWF-(4,244,217)  6.31820914E-06                  1_GWF-(4,229,213)
       1180         27         14 -2.05919080E-02                  1_GWF-(4,229,213)  1.92113534E-06                  1_GWF-(4,279,218)
       1181         27         15  7.74646855E-03                  1_GWF-(1,245,217) -1.93192128E-06                  1_GWF-(1,229,213)
       1182         28          1     -0.54130648                  1_GWF-(1,239,207) -1.58497691E-04                  1_GWF-(1,229,213)
       1183         28          2     -0.63718943                  1_GWF-(4,226,197) -8.26492509E-05                  1_GWF-(4,226,197)
       1184         28          3      0.27626973                  1_GWF-(4,226,197) -5.39930780E-05                  1_GWF-(4,229,213)
       1185         28          4  5.06895595E-02                  1_GWF-(4,229,213) -3.58553773E-05                  1_GWF-(4,229,213)
       1186         28          5  4.34623028E-02                  1_GWF-(4,229,213) -1.82612714E-05                  1_GWF-(4,229,213)
       1187         28          6  4.14539761E-02                  1_GWF-(4,229,213)  6.10000619E-06                  1_GWF-(1,237,225)
       1188         28          7 -4.51650023E-02                  1_GWF-(4,241,218) -6.94501144E-06                  1_GWF-(1,229,213)
       1189         28          8 -2.01591685E-02                  1_GWF-(4,242,217)  2.36339311E-06                  1_GWF-(4,279,218)
       1190         28          9 -2.32470331E-02                  1_GWF-(1,245,215)  2.24035057E-06                  1_GWF-(4,279,218)
       1191         28         10 -2.47138990E-02                  1_GWF-(1,244,216)  2.13944498E-06                  1_GWF-(4,279,218)
       1192         28         11 -2.96357148E-02                  1_GWF-(1,244,218)  2.10410091E-06                  1_GWF-(4,279,222)
       1193         28         12 -5.17073063E-02                  1_GWF-(1,244,218)  2.21901545E-06                  1_GWF-(4,279,222)
       1194         28         13     -0.10401712                  1_GWF-(1,244,219)  2.46412738E-06                  1_GWF-(4,279,222)
       1195         28         14     -0.10340929                  1_GWF-(1,245,219)  2.64217470E-06                  1_GWF-(4,279,222)
       1196         28         15     -0.38262424                  1_GWF-(1,245,220)  4.67082186E-06                  1_GWF-(4,229,213)
       1197         28         16  7.97965820E-02                  1_GWF-(1,244,219)  3.01298869E-06                  1_GWF-(4,279,222)
       1198         28         17     -0.21145092                  1_GWF-(1,245,221)  3.27045657E-06                  1_GWF-(4,279,222)
       1199         28         18     -0.33397146                  1_GWF-(1,243,238) -6.97474154E-06                  1_GWF-(4,229,213)
       1200         28         19     -0.18510079                  1_GWF-(4,248,234)  3.10561017E-06                  1_GWF-(4,279,218)
       1201         28         20     -0.13956032                  1_GWF-(4,250,239)  2.91231548E-06                  1_GWF-(4,279,222)
       1202         28         21 -5.11175112E-02                  1_GWF-(1,257,240)  2.87554064E-06                  1_GWF-(4,279,222)
       1203         28         22      0.34873105                  1_GWF-(1,256,240)  3.48392247E-06                  1_GWF-(4,279,218)
       1204         28         23     -0.73416843                  1_GWF-(1,280,240) -4.04663612E-06                    1_GWF-(1,53,74)
       1205         28         24     -0.21033453                  1_GWF-(1,270,236)  2.75736408E-06                  1_GWF-(1,238,224)
       1206         28         25 -1.91580118E-02                  1_GWF-(4,269,187) -3.93182035E-06                   1_GWF-(4,103,33)
       1207         28         26     -0.21350756                  1_GWF-(1,273,240)  1.98642594E-06                  1_GWF-(4,279,218)
       1208         28         27     -0.16944298                  1_GWF-(1,277,240) -2.72518241E-06                    1_GWF-(1,53,74)
       1209         28         28     -0.15156599                  1_GWF-(1,277,240)  1.43436608E-06                  1_GWF-(4,279,218)
       1210         28         29     -0.14280513                  1_GWF-(1,277,240) -4.63934409E-06                    1_GWF-(1,53,74)
       1211         28         30     -0.14579854                  1_GWF-(1,278,240) -7.83230280E-07                    1_GWF-(1,53,74)
       1212         28         31     -0.14350503                  1_GWF-(1,279,240)  5.16352222E-07                    1_GWF-(1,53,74)
       1213         28         32  4.68676750E-03                  1_GWF-(1,240,235) -9.51157673E-07                    1_GWF-(1,53,74)
       1214         29          1      -2.1933711                  1_GWF-(4,229,213) -6.86800405E-04                  1_GWF-(4,229,213)
       1215         29          2      -4.5907038                  1_GWF-(4,226,197) -7.34981406E-04                  1_GWF-(4,226,197)
       1216         29          3       2.6292580                  1_GWF-(4,226,197) -1.25812011E-04                  1_GWF-(4,229,213)
       1217         29          4 -8.11869170E-02                  1_GWF-(4,226,197) -1.43805283E-04                  1_GWF-(4,229,213)
       1218         29          5      0.31407466                  1_GWF-(4,229,213) -4.58292323E-05                  1_GWF-(4,229,213)
       1219         29          6  9.79966125E-02                  1_GWF-(4,229,213)  1.86424880E-05                  1_GWF-(4,279,228)
       1220         29          7 -8.58605189E-02                  1_GWF-(4,229,213) -4.19368111E-05                  1_GWF-(4,229,213)
       1221         29          8      0.12613886                  1_GWF-(4,229,213) -5.74912742E-06                  1_GWF-(4,280,234)
       1222         29          9 -1.02831847E-02                  1_GWF-(4,229,213) -6.56861566E-06                  1_GWF-(4,229,213)
       1223         29         10  1.05095121E-02                  1_GWF-(4,229,213) -3.46453673E-06                  1_GWF-(4,229,213)
       1224         29         11  8.02108455E-03                  1_GWF-(4,229,213)  1.57482833E-06                  1_GWF-(4,280,221)
       1225         30          1     -0.40126135                  1_GWF-(4,229,213) -1.26381336E-04                  1_GWF-(4,229,213)
       1226         30          2     -0.68542956                  1_GWF-(4,226,197) -1.02584726E-04                  1_GWF-(4,226,197)
       1227         30          3      0.36423230                  1_GWF-(4,226,197) -3.79679434E-05                  1_GWF-(4,229,213)
       1228         30          4  3.08926322E-02                  1_GWF-(4,229,213) -2.83731170E-05                  1_GWF-(4,229,213)
       1229         30          5  5.79367380E-02                  1_GWF-(4,229,213) -1.03359571E-05                  1_GWF-(4,229,213)
       1230         30          6  2.07436304E-02                  1_GWF-(4,229,213)  4.14360425E-06                  1_GWF-(4,279,228)
       1231         30          7 -1.23237023E-02                  1_GWF-(4,229,213) -7.67770670E-06                  1_GWF-(4,229,213)
       1232         30          8  2.37558458E-02                  1_GWF-(4,229,213)  1.17878889E-06                  1_GWF-(4,275,171)
       1233         30          9 -4.41267201E-03                  1_GWF-(4,229,213) -1.68702479E-06                  1_GWF-(4,229,213)
       1234         31          1 -8.84502902E-02                  1_GWF-(1,239,207) -2.77557613E-05                  1_GWF-(4,229,213)
       1235         31          2  8.31350528E-02                  1_GWF-(4,229,213) -9.31188145E-06                  1_GWF-(4,239,207)
       1236         31          3  1.26392561E-02                  1_GWF-(4,223,221) -6.26108812E-06                  1_GWF-(4,229,213)
       1237         31          4  9.76233605E-03                  1_GWF-(4,221,215) -4.41559821E-06                  1_GWF-(4,229,213)
       1238         32          1 -3.25424863E-02                  1_GWF-(4,239,207) -7.16836895E-06                  1_GWF-(4,226,197)
       1239         32          2  4.45820557E-02                  1_GWF-(4,226,197)  5.54188820E-06                  1_GWF-(4,226,197)
       1240         32          3 -2.21005589E-02                  1_GWF-(4,226,197) -1.73724947E-06                  1_GWF-(4,229,213)
       1241         32          4  3.29057865E-03                  1_GWF-(4,229,213)  8.34958052E-07                  1_GWF-(4,226,219)
       1242         33          1 -1.40570159E-02                  1_GWF-(4,239,207)  3.11067741E-06                  1_GWF-(4,277,139)
       1243         33          2 -1.18642044E-02                  1_GWF-(4,229,213) -5.58422177E-06                  1_GWF-(4,229,213)
       1244         33          3 -1.12974792E-02                  1_GWF-(4,226,197) -2.51508584E-06                  1_GWF-(4,229,213)
       1245         33          4  6.44860588E-03                  1_GWF-(4,226,197) -9.18759436E-07                  1_GWF-(4,229,213)
       1246         34          1 -6.95149603E-03                  1_GWF-(4,239,207)  3.23961335E-06                  1_GWF-(4,277,147)
 --------------------------------------------------------------------------------------------------------------------------------------



 MEMORY MANAGER TOTAL STORAGE BY DATA TYPE, IN MEGABYTES
 -------------------------------
                    ALLOCATED   
 DATA TYPE           MEMORY     
 -------------------------------
 Character        1.53300000E-03
 Logical          4.40000000E-05
 Integer          28.162920     
 Real             56.882608     
 -------------------------------
 Total            85.047105     
 -------------------------------


 
 Run end date and time (yyyy/mm/dd hh:mm:ss): 2020/12/27 18:00:40
 Elapsed run time: 35.412 Seconds
 Normal termination of simulation.
